@<TRIPOS>MOLECULE
abu
 16 15 0 0 0
SMALL
GASTEIGER

@<TRIPOS>ATOM
      1 N           3.5020   -1.4425    0.0000 N.3     1  UNL11      -0.3300
      2 C           2.0400   -1.4425    0.0000 C.3     1  UNL11      -0.0064
      3 C           1.5300    0.0000    0.0000 C.3     1  UNL11      -0.0306
      4 C           0.0000    0.0000    0.0000 C.3     1  UNL11       0.0459
      5 C          -0.4867    1.3765    0.0000 C.2     1  UNL11       0.3047
      6 O          -1.7156    1.6049    0.0000 O.2     1  UNL11      -0.2510
      7 O           0.3906    2.4026    0.0000 O.3     1  UNL11      -0.4806
      8 H           3.8427   -2.4060    0.0000 H       1  UNL11       0.1182
      9 H           3.8427   -0.9607    0.8345 H       1  UNL11       0.1182
     10 H           1.6767   -1.9563   -0.8900 H       1  UNL11       0.0422
     11 H           1.6767   -1.9563    0.8900 H       1  UNL11       0.0422
     12 H           1.8933    0.5138   -0.8900 H       1  UNL11       0.0283
     13 H           1.8933    0.5138    0.8900 H       1  UNL11       0.0283
     14 H          -0.3633   -0.5138   -0.8900 H       1  UNL11       0.0378
     15 H          -0.3633   -0.5138    0.8900 H       1  UNL11       0.0378
     16 H           0.0639    3.3266    0.0000 H       1  UNL11       0.2951
@<TRIPOS>BOND
     1     1     2    1
     2     1     8    1
     3     1     9    1
     4     2     3    1
     5     2    10    1
     6     2    11    1
     7     3     4    1
     8     3    12    1
     9     3    13    1
    10     4     5    1
    11     4    14    1
    12     4    15    1
    13     5     6    2
    14     5     7    1
    15     7    16    1
